Version 4.1
SHEET 1 880 680
WIRE 288 -304 208 -304
WIRE 64 -240 32 -240
WIRE 208 -224 208 -304
WIRE 288 -192 288 -224
WIRE 304 -192 288 -192
WIRE 304 -176 304 -192
WIRE 208 -96 208 -144
WIRE 32 -80 32 -240
WIRE -208 -64 -256 -64
WIRE -80 -64 -128 -64
WIRE -64 -64 -80 -64
WIRE 0 -64 -16 -64
WIRE -64 -32 -64 -64
WIRE 0 -32 -64 -32
WIRE -80 -16 -80 -64
WIRE 64 -16 64 -48
WIRE 80 -16 64 -16
WIRE 208 32 208 0
WIRE -256 48 -256 16
WIRE 160 48 160 -16
WIRE 160 48 -80 48
WIRE -16 112 -16 -64
WIRE 176 112 -16 112
WIRE 208 112 176 112
WIRE 176 144 176 112
FLAG -256 48 0
FLAG 304 -176 0
FLAG 64 -160 0
FLAG 32 -16 0
FLAG 176 144 0
SYMBOL Contrib\\Toshiba\\lvmos\\T2N7002AK_G0_00 160 -96 R0
SYMATTR InstName U1
SYMBOL OpAmps\\LT1013 32 -112 R0
WINDOW 3 -90 18 Left 2
SYMATTR InstName U2
SYMBOL res -112 -80 R90
WINDOW 0 0 56 VBottom 2
WINDOW 3 32 56 VTop 2
SYMATTR InstName R1
SYMATTR Value 100
SYMBOL res 192 -240 R0
SYMATTR InstName R2
SYMATTR Value 10k
SYMBOL res 176 -32 R90
WINDOW 0 0 56 VBottom 2
WINDOW 3 32 56 VTop 2
SYMATTR InstName R3
SYMATTR Value 10
SYMBOL res 192 16 R0
SYMATTR InstName R4
SYMATTR Value 1000
SYMBOL cap -96 -16 R0
SYMATTR InstName C1
SYMATTR Value 1µ
SYMBOL voltage -256 -80 R0
WINDOW 123 0 0 Left 0
WINDOW 39 0 0 Left 0
WINDOW 3 -236 100 Left 2
SYMATTR Value PULSE(0 5 0 1u 1u 2.5m 5m 100)
SYMATTR InstName V1
SYMBOL voltage 288 -320 R0
WINDOW 123 0 0 Left 0
WINDOW 39 0 0 Left 0
SYMATTR InstName V2
SYMATTR Value 55
SYMBOL voltage 64 -256 R0
WINDOW 123 0 0 Left 0
WINDOW 39 0 0 Left 0
SYMATTR InstName V3
SYMATTR Value 15
TEXT -496 -312 Left 2 !.tran 1sec
